Version 4.1
SHEET 1 968 680
WIRE -256 48 -304 48
WIRE -128 48 -256 48
WIRE 160 64 80 64
WIRE -128 80 -304 80
WIRE 176 96 80 96
WIRE -256 112 -256 48
WIRE -240 112 -256 112
WIRE -128 112 -160 112
FLAG 160 64 Q
IOPIN 160 64 Out
FLAG 176 96 Qnot
IOPIN 176 96 Out
FLAG -304 48 D
IOPIN -304 48 In
FLAG -304 80 C
IOPIN -304 80 In
SYMBOL RSlatch -32 80 R0
WINDOW 0 8 -56 Invisible 2
SYMATTR InstName X1
SYMBOL ELEC2141\\NOT_2141 -208 112 R0
SYMATTR InstName X2
