Version 4.1
SHEET 1 968 680
WIRE -160 64 -192 64
WIRE -64 64 -64 16
WIRE -64 64 -80 64
WIRE -48 64 -64 64
WIRE 160 80 32 80
WIRE -48 96 -80 96
WIRE 256 96 240 96
WIRE 304 96 256 96
WIRE 160 112 96 112
WIRE 256 128 256 96
WIRE 96 160 96 112
WIRE -192 192 -192 64
WIRE -192 192 -224 192
WIRE -176 192 -192 192
WIRE -80 192 -80 96
WIRE -80 192 -96 192
WIRE -16 192 -80 192
WIRE 96 256 256 128
WIRE 256 272 96 160
WIRE 96 288 96 256
WIRE 160 288 96 288
WIRE -80 304 -80 192
WIRE -48 304 -80 304
WIRE 256 304 256 272
WIRE 256 304 240 304
WIRE 304 304 256 304
WIRE 160 320 32 320
WIRE -192 336 -192 192
WIRE -160 336 -192 336
WIRE -64 336 -80 336
WIRE -48 336 -64 336
WIRE -64 384 -64 336
FLAG 304 96 Q
FLAG 304 304 Qnot
FLAG -224 192 0
FLAG -64 16 S
FLAG -64 384 R
FLAG -16 192 E
SYMBOL ELEC2141\\NAND_2141 208 96 R0
SYMATTR InstName X1
SYMBOL ELEC2141\\NAND_2141 208 304 R0
SYMATTR InstName X2
SYMBOL ELEC2141\\NAND_2141 0 320 R0
SYMATTR InstName X3
SYMBOL ELEC2141\\NAND_2141 0 80 R0
SYMATTR InstName X4
SYMBOL voltage -80 192 R90
WINDOW 0 -32 56 VBottom 2
WINDOW 3 32 56 Invisible 2
WINDOW 123 0 0 Left 0
WINDOW 39 0 0 Left 0
SYMATTR InstName Control
SYMATTR Value PWL file="C:\Users\neilt\Documents\Vivado-Projects\Week7\Lab 5\2_control.txt"
SYMBOL voltage -64 64 R90
WINDOW 0 -32 56 Invisible 2
WINDOW 3 32 56 Invisible 2
WINDOW 123 0 0 Left 0
WINDOW 39 0 0 Left 0
SYMATTR InstName S
SYMATTR Value PWL file="C:\Users\neilt\Documents\Vivado-Projects\Week7\Lab 5\2_S.txt"
SYMBOL voltage -64 336 R90
WINDOW 0 -32 56 Invisible 2
WINDOW 3 32 56 Invisible 2
WINDOW 123 0 0 Left 0
WINDOW 39 0 0 Left 0
SYMATTR InstName R
SYMATTR Value PWL file="C:\Users\neilt\Documents\Vivado-Projects\Week7\Lab 5\2_R.txt"
TEXT 256 -96 Left 2 !.tran 1000ms
