Version 4.1
SHEET 1 968 680
WIRE 160 80 32 80
WIRE 256 96 240 96
WIRE 304 96 256 96
WIRE 160 112 96 112
WIRE 256 128 256 96
WIRE 96 160 96 112
WIRE 32 208 32 160
WIRE 32 208 0 208
WIRE 32 240 32 208
WIRE 96 256 256 128
WIRE 256 272 96 160
WIRE 96 288 96 256
WIRE 160 288 96 288
WIRE 256 304 256 272
WIRE 256 304 240 304
WIRE 304 304 256 304
WIRE 160 320 32 320
FLAG 0 208 0
FLAG 304 96 Q
FLAG 304 304 Qnot
SYMBOL ELEC2141\\NAND_2141 208 96 R0
SYMATTR InstName X1
SYMBOL ELEC2141\\NAND_2141 208 304 R0
SYMATTR InstName X2
SYMBOL voltage 32 64 R0
WINDOW 3 24 96 Invisible 2
WINDOW 123 0 0 Left 0
WINDOW 39 0 0 Left 0
SYMATTR InstName S
SYMATTR Value PWL file="C:\Users\neilt\Documents\Vivado-Projects\Week7\Lab 5\1_S.txt"
SYMBOL voltage 32 336 R180
WINDOW 0 24 96 Left 2
WINDOW 3 24 16 Invisible 2
WINDOW 123 0 0 Left 0
WINDOW 39 0 0 Left 0
SYMATTR InstName R
SYMATTR Value PWL file="C:\Users\neilt\Documents\Vivado-Projects\Week7\Lab 5\1_R.txt"
TEXT -16 368 Left 2 !.tran 1000ms
