Version 4.1
SHEET 1 968 680
WIRE -208 48 -256 48
WIRE -128 48 -208 48
WIRE 160 64 80 64
WIRE -288 80 -320 80
WIRE -128 80 -288 80
WIRE 176 96 80 96
WIRE -256 112 -256 48
WIRE -240 112 -256 112
WIRE -128 112 -160 112
FLAG -256 -32 0
FLAG -400 80 0
FLAG 160 64 Q
FLAG 176 96 Qn
FLAG -288 80 enable
FLAG -208 48 D
SYMBOL RSlatch -32 80 R0
WINDOW 0 8 -56 Invisible 2
SYMATTR InstName X1
SYMBOL ELEC2141\\NOT_2141 -208 112 R0
SYMATTR InstName X2
SYMBOL voltage -304 80 R90
WINDOW 0 -32 56 VBottom 2
WINDOW 3 32 56 Invisible 2
WINDOW 123 0 0 Left 0
WINDOW 39 0 0 Left 0
SYMATTR InstName V1
SYMATTR Value PWL file="C:\Users\neilt\Documents\Vivado-Projects\Week7\Lab 5\3_control.txt"
SYMBOL voltage -256 64 R180
WINDOW 0 24 96 Left 2
WINDOW 3 24 16 Invisible 2
WINDOW 123 0 0 Left 0
WINDOW 39 0 0 Left 0
SYMATTR InstName V2
SYMATTR Value PWL file="C:\Users\neilt\Documents\Vivado-Projects\Week7\Lab 5\3_D.txt"
TEXT -416 160 Left 2 !.tran 1000ms
