Version 4.1
SHEET 1 880 680
WIRE 352 -96 176 -96
WIRE 352 -48 352 -96
WIRE 176 144 176 -96
WIRE 112 176 16 176
WIRE 16 224 16 176
WIRE 176 240 176 208
WIRE 288 240 176 240
WIRE 512 240 288 240
WIRE 512 272 512 240
WIRE 176 288 176 240
WIRE 16 336 16 304
WIRE 512 384 512 336
FLAG 16 336 0
FLAG 352 32 0
FLAG 176 368 0
FLAG 288 240 circuit
IOPIN 288 240 Out
FLAG 512 464 0
SYMBOL ELEC2141\\switch_ideal_2141 160 176 R0
SYMATTR InstName X1
SYMBOL voltage 352 -64 R0
WINDOW 123 0 0 Left 0
WINDOW 39 0 0 Left 0
SYMATTR InstName V1
SYMATTR Value 5
SYMBOL res 160 272 R0
SYMATTR InstName R1
SYMATTR Value 10k
SYMBOL voltage 16 208 R0
WINDOW 3 -309 100 Left 2
WINDOW 123 0 0 Left 0
WINDOW 39 0 0 Left 0
SYMATTR InstName V2
SYMATTR Value PULSE(0 5 20ms 1ns 1ns 20ns 40ms)
SYMBOL LED 496 272 R0
SYMATTR InstName D1
SYMBOL res 496 368 R0
SYMATTR InstName R2
