Version 4.1
SHEET 1 968 680
WIRE -48 64 -112 64
WIRE 160 80 32 80
WIRE -48 96 -80 96
WIRE 256 96 240 96
WIRE 304 96 256 96
WIRE 160 112 96 112
WIRE 256 128 256 96
WIRE 96 160 96 112
WIRE -80 192 -80 96
WIRE -80 192 -112 192
WIRE 96 256 256 128
WIRE 256 272 96 160
WIRE 96 288 96 256
WIRE 160 288 96 288
WIRE -80 304 -80 192
WIRE -48 304 -80 304
WIRE 256 304 256 272
WIRE 256 304 240 304
WIRE 304 304 256 304
WIRE 160 320 32 320
WIRE -48 336 -112 336
FLAG 304 96 Q
IOPIN 304 96 Out
FLAG 304 304 Qnot
IOPIN 304 304 Out
FLAG -112 64 S
IOPIN -112 64 In
FLAG -112 192 Control
IOPIN -112 192 In
FLAG -112 336 R
IOPIN -112 336 In
SYMBOL ELEC2141\\NAND_2141 208 96 R0
SYMATTR InstName X1
SYMBOL ELEC2141\\NAND_2141 208 304 R0
SYMATTR InstName X2
SYMBOL ELEC2141\\NAND_2141 0 320 R0
SYMATTR InstName X3
SYMBOL ELEC2141\\NAND_2141 0 80 R0
SYMATTR InstName X4
TEXT 256 -96 Left 2 !.tran 1000ms
