Version 4
SHEET 1 880 680
WIRE 144 -16 128 -16
WIRE 336 -16 144 -16
WIRE 336 0 288 0
WIRE 336 16 320 16
WIRE 144 32 144 -16
WIRE 144 32 16 32
WIRE 144 80 112 80
WIRE 16 96 16 32
WIRE 48 96 16 96
WIRE 144 112 128 112
WIRE 272 112 240 112
WIRE 48 128 32 128
WIRE 320 144 320 16
WIRE 320 144 240 144
WIRE 272 208 272 112
WIRE 272 208 128 208
WIRE 32 224 32 128
WIRE 112 224 112 80
WIRE 112 224 32 224
WIRE 288 224 288 0
WIRE 288 224 112 224
WIRE 144 256 -16 256
WIRE 128 288 128 208
WIRE 144 288 128 288
WIRE 288 320 288 224
WIRE 288 320 240 320
SYMBOL JKflipflopasy 192 128 R0
SYMATTR InstName X1
SYMBOL JKflipflopasy 192 304 R0
SYMATTR InstName X2
SYMBOL and2 80 48 R0
SYMATTR InstName A1
SYMBOL or2 -32 -80 R0
SYMATTR InstName X3
SYMBOL not 80 -16 R0
SYMATTR InstName X4
SYMBOL and2 368 -64 R0
SYMATTR InstName A2
