Version 4.1
SHEET 1 880 680
WIRE 336 32 176 32
WIRE 400 32 336 32
WIRE 400 64 352 64
WIRE 176 112 176 32
WIRE 176 112 32 112
WIRE 208 112 176 112
WIRE 288 112 272 112
WIRE 336 128 336 32
WIRE 384 128 336 128
WIRE 384 160 336 160
WIRE 176 176 32 176
WIRE 208 176 176 176
WIRE 288 176 352 64
WIRE 288 176 272 176
WIRE 352 208 288 112
WIRE 400 208 352 208
WIRE 176 240 176 176
WIRE 336 240 336 160
WIRE 336 240 176 240
WIRE 400 240 336 240
FLAG 32 112 MEAS
IOPIN 32 112 In
FLAG 32 176 REF
IOPIN 32 176 In
FLAG 480 48 G
IOPIN 480 48 Out
FLAG 480 144 E
IOPIN 480 144 Out
FLAG 480 224 L
IOPIN 480 224 Out
SYMBOL Digital\\inv 208 48 R0
SYMATTR InstName ~MEAS
SYMBOL Digital\\inv 208 112 R0
SYMATTR InstName ~REF
SYMBOL selfmadecomponents\\XNOR_2141 400 144 R0
SYMATTR InstName U1
SYMBOL selfmadecomponents\\and2 432 -16 R0
SYMATTR InstName A1
SYMBOL selfmadecomponents\\and2 432 160 R0
SYMATTR InstName A2
