Version 4.1
SHEET 1 880 680
WIRE 48 112 -16 112
WIRE 480 112 208 112
WIRE 48 144 16 144
WIRE 240 144 208 144
WIRE 240 176 240 144
WIRE 240 176 16 176
WIRE 16 208 16 176
WIRE 48 208 16 208
WIRE 416 224 240 224
WIRE 48 240 -16 240
WIRE 272 256 240 256
WIRE 48 272 16 272
WIRE 480 272 480 112
WIRE 544 272 480 272
WIRE 416 288 416 224
WIRE 544 288 416 288
WIRE 272 304 272 256
WIRE 272 304 16 304
WIRE 544 304 416 304
WIRE 544 320 480 320
WIRE 16 336 16 304
WIRE 48 336 16 336
WIRE 416 352 416 304
WIRE 416 352 240 352
WIRE 48 368 -16 368
WIRE 272 384 240 384
WIRE 48 400 16 400
WIRE 272 432 272 384
WIRE 272 432 16 432
WIRE 16 464 16 432
WIRE 48 464 16 464
WIRE 480 480 480 320
WIRE 480 480 240 480
WIRE 48 496 -16 496
WIRE 48 528 16 528
FLAG -16 112 CODE[0]
IOPIN -16 112 In
FLAG -16 240 CODE[1]
IOPIN -16 240 In
FLAG -16 368 CODE[2]
IOPIN -16 368 In
FLAG -16 496 CODE[3]
IOPIN -16 496 In
FLAG 16 144 OUTS[0]
IOPIN 16 144 In
FLAG 16 272 OUTS[1]
IOPIN 16 272 In
FLAG 16 400 OUTS[2]
IOPIN 16 400 In
FLAG 16 528 OUTS[3]
IOPIN 16 528 In
FLAG 624 288 CORR2
IOPIN 624 288 Out
SYMBOL selfmadecomponents\\HalfAdder 128 128 R0
SYMATTR InstName X1
SYMBOL selfmadecomponents\\FullAdder 144 240 R0
SYMATTR InstName X2
SYMBOL selfmadecomponents\\FullAdder 144 368 R0
SYMATTR InstName X3
SYMBOL selfmadecomponents\\nor2 544 224 R0
SYMATTR InstName X4
SYMBOL selfmadecomponents\\FullAdder 144 496 R0
SYMATTR InstName X5
