Version 4.1
SHEET 1 884 1416
WIRE 512 96 -48 96
WIRE -304 112 -336 112
WIRE -160 112 -304 112
WIRE 512 112 432 112
WIRE -336 128 -336 112
WIRE -336 128 -416 128
WIRE -160 128 -288 128
WIRE -48 128 -48 96
WIRE -48 128 -80 128
WIRE 256 128 96 128
WIRE 320 128 256 128
WIRE 512 128 448 128
WIRE 320 144 128 144
WIRE 512 144 464 144
WIRE -400 160 -416 160
WIRE -320 160 -288 128
WIRE -304 160 -304 112
WIRE -96 160 -96 128
WIRE -80 160 -96 160
WIRE 432 160 432 112
WIRE 432 160 400 160
WIRE -112 176 -144 176
WIRE -80 176 -112 176
WIRE 0 176 -16 176
WIRE 96 176 96 128
WIRE 96 176 64 176
WIRE -400 192 -400 160
WIRE -224 192 -400 192
WIRE -112 224 -112 176
WIRE 192 224 -112 224
WIRE 256 224 256 128
WIRE 320 224 256 224
WIRE 320 240 240 240
WIRE 320 256 96 256
WIRE 448 256 448 128
WIRE 448 256 400 256
WIRE -304 272 -336 272
WIRE -160 272 -304 272
WIRE -336 288 -336 272
WIRE -336 288 -416 288
WIRE -160 288 -288 288
WIRE -96 288 -112 288
WIRE 128 288 128 144
WIRE 128 288 -80 288
WIRE -400 320 -416 320
WIRE -320 320 -288 288
WIRE -304 320 -304 272
WIRE -96 320 -96 288
WIRE -80 320 -96 320
WIRE 96 320 96 256
WIRE 256 320 256 224
WIRE 320 320 256 320
WIRE -112 336 -144 336
WIRE -80 336 -112 336
WIRE 0 336 -16 336
WIRE 240 336 240 240
WIRE 240 336 64 336
WIRE 320 336 240 336
WIRE -400 352 -400 320
WIRE -224 352 -400 352
WIRE 64 352 96 320
WIRE 224 352 96 352
WIRE 320 352 224 352
WIRE 464 352 464 144
WIRE 464 352 400 352
WIRE 320 368 128 368
WIRE -112 400 -112 336
WIRE 160 400 -112 400
WIRE -304 432 -336 432
WIRE -160 432 -304 432
WIRE 192 432 192 224
WIRE 512 432 192 432
WIRE -336 448 -336 432
WIRE -336 448 -416 448
WIRE -160 448 -288 448
WIRE -96 448 -112 448
WIRE 64 448 64 352
WIRE 64 448 -80 448
WIRE 512 448 416 448
WIRE 512 464 432 464
WIRE -400 480 -416 480
WIRE -320 480 -288 448
WIRE -304 480 -304 432
WIRE -96 480 -96 448
WIRE -80 480 -96 480
WIRE 256 480 256 320
WIRE 320 480 256 480
WIRE 512 480 448 480
WIRE -112 496 -144 496
WIRE -80 496 -112 496
WIRE 0 496 -16 496
WIRE 96 496 96 352
WIRE 96 496 64 496
WIRE 160 496 160 400
WIRE 320 496 160 496
WIRE -400 512 -400 480
WIRE -224 512 -400 512
WIRE 416 512 416 448
WIRE 416 512 400 512
WIRE -112 544 -112 496
WIRE 144 544 -112 544
WIRE 256 576 256 480
WIRE 320 576 256 576
WIRE -304 592 -336 592
WIRE -160 592 -304 592
WIRE 240 592 240 336
WIRE 320 592 240 592
WIRE -336 608 -336 592
WIRE -336 608 -416 608
WIRE -160 608 -288 608
WIRE -96 608 -112 608
WIRE 128 608 128 368
WIRE 128 608 -80 608
WIRE 144 608 144 544
WIRE 320 608 144 608
WIRE 432 608 432 464
WIRE 432 608 400 608
WIRE -400 640 -416 640
WIRE -320 640 -288 608
WIRE -304 640 -304 592
WIRE 192 656 -144 656
WIRE -400 672 -400 640
WIRE -224 672 -400 672
WIRE 256 672 256 576
WIRE 320 672 256 672
WIRE 240 688 240 592
WIRE 320 688 240 688
WIRE 224 704 224 352
WIRE 320 704 224 704
WIRE 448 704 448 480
WIRE 448 704 400 704
WIRE 192 720 192 656
WIRE 320 720 192 720
FLAG 592 128 COMP[1]
IOPIN 592 128 Out
FLAG 592 464 COMP[0]
IOPIN 592 464 Out
FLAG -416 128 MEAS[3]
IOPIN -416 128 In
FLAG -416 160 REF[3]
IOPIN -416 160 In
FLAG -416 288 MEAS[2]
IOPIN -416 288 In
FLAG -416 320 REF[2]
IOPIN -416 320 In
FLAG -416 448 MEAS[1]
IOPIN -416 448 In
FLAG -416 480 REF[1]
IOPIN -416 480 In
FLAG -416 608 MEAS[0]
IOPIN -416 608 In
FLAG -416 640 REF[0]
IOPIN -416 640 In
SYMBOL selfmadecomponents\\and2 352 96 R0
WINDOW 0 16 24 Invisible 2
SYMATTR InstName A1
SYMBOL selfmadecomponents\\and2 352 192 R0
WINDOW 0 16 24 Invisible 2
SYMATTR InstName A2
SYMBOL selfmadecomponents\\and2 352 288 R0
WINDOW 0 16 24 Invisible 2
SYMATTR InstName A3
SYMBOL selfmadecomponents\\and2 352 448 R0
WINDOW 0 16 24 Invisible 2
SYMATTR InstName A4
SYMBOL selfmadecomponents\\and2 352 544 R0
WINDOW 0 16 24 Invisible 2
SYMATTR InstName A5
SYMBOL selfmadecomponents\\and2 352 640 R0
WINDOW 0 16 24 Invisible 2
SYMATTR InstName A6
SYMBOL selfmadecomponents\\or2 512 64 R0
SYMATTR InstName X1
SYMBOL selfmadecomponents\\or2 512 400 R0
SYMATTR InstName X2
SYMBOL ELEC2141\\NOT_2141 -368 160 R0
SYMATTR InstName X3
SYMBOL selfmadecomponents\\and2 -128 64 R0
WINDOW 0 16 24 Invisible 2
SYMATTR InstName A7
SYMBOL selfmadecomponents\\and2 -192 112 R0
WINDOW 0 16 24 Invisible 2
SYMATTR InstName A8
SYMBOL ELEC2141\\NOT_2141 -272 160 R0
SYMATTR InstName X5
SYMBOL ELEC2141\\NOT_2141 -368 320 R0
SYMATTR InstName X6
SYMBOL selfmadecomponents\\and2 -128 224 R0
WINDOW 0 16 24 Invisible 2
SYMATTR InstName A9
SYMBOL selfmadecomponents\\and2 -192 272 R0
WINDOW 0 16 24 Invisible 2
SYMATTR InstName A10
SYMBOL ELEC2141\\NOT_2141 -272 320 R0
SYMATTR InstName X8
SYMBOL ELEC2141\\NOT_2141 -368 480 R0
SYMATTR InstName X9
SYMBOL selfmadecomponents\\and2 -128 384 R0
WINDOW 0 16 24 Invisible 2
SYMATTR InstName A11
SYMBOL selfmadecomponents\\and2 -192 432 R0
WINDOW 0 16 24 Invisible 2
SYMATTR InstName A12
SYMBOL ELEC2141\\NOT_2141 -272 480 R0
SYMATTR InstName X11
SYMBOL ELEC2141\\NOT_2141 -368 640 R0
SYMATTR InstName X12
SYMBOL selfmadecomponents\\and2 -128 544 R0
WINDOW 0 16 24 Invisible 2
SYMATTR InstName A13
SYMBOL selfmadecomponents\\and2 -192 592 R0
WINDOW 0 16 24 Invisible 2
SYMATTR InstName A14
SYMBOL ELEC2141\\NOT_2141 -272 640 R0
SYMATTR InstName X14
SYMBOL selfmadecomponents\\or2 -80 272 R0
SYMATTR InstName X4
SYMBOL selfmadecomponents\\or2 -80 112 R0
SYMATTR InstName X7
SYMBOL selfmadecomponents\\or2 -80 432 R0
SYMATTR InstName X10
SYMBOL ELEC2141\\NOT_2141 16 336 R0
SYMATTR InstName X13
SYMBOL ELEC2141\\NOT_2141 16 176 R0
SYMATTR InstName X18
SYMBOL ELEC2141\\NOT_2141 16 496 R0
SYMATTR InstName X19
