Version 4.1
SHEET 1 880 680
WIRE 64 96 16 96
WIRE 240 96 160 96
WIRE 288 112 240 96
WIRE 64 128 32 128
WIRE 288 128 160 128
WIRE 384 144 368 144
WIRE 64 160 16 160
WIRE 288 160 160 160
WIRE 64 192 32 192
WIRE 240 192 288 176
WIRE 240 192 160 192
WIRE 384 208 384 144
WIRE 432 208 384 208
WIRE 432 240 384 240
WIRE 32 256 16 256
WIRE 64 272 32 256
WIRE 64 288 32 288
WIRE 384 304 384 240
WIRE 384 304 144 304
WIRE 64 320 16 320
WIRE 32 352 64 336
FLAG 16 96 REF[3]
IOPIN 16 96 In
FLAG 32 128 REF[2]
IOPIN 32 128 In
FLAG 16 160 REF[1]
IOPIN 16 160 In
FLAG 32 192 REF[0]
IOPIN 32 192 In
FLAG 16 256 MEAS[3]
IOPIN 16 256 In
FLAG 32 288 MEAS[3]
IOPIN 32 288 In
FLAG 16 320 MEAS[3]
IOPIN 16 320 In
FLAG 32 352 MEAS[3]
IOPIN 32 352 In
SYMBOL selfmadecomponents\\twoscompliment 112 144 R0
SYMATTR InstName X1
SYMBOL selfmadecomponents\\xor2 112 240 R0
SYMATTR InstName A1
SYMBOL selfmadecomponents\\xor2 336 80 R0
SYMATTR InstName A2
SYMBOL selfmadecomponents\\XNOR_2141 448 224 R0
SYMATTR InstName U1
