Version 4.1
SHEET 1 884 824
WIRE -80 96 -144 96
WIRE 512 96 0 96
WIRE 176 112 0 112
WIRE 512 112 432 112
WIRE -80 128 -112 128
WIRE 256 128 0 128
WIRE 320 128 256 128
WIRE 512 128 448 128
WIRE 720 128 592 128
WIRE 320 144 224 144
WIRE 512 144 464 144
WIRE 432 160 432 112
WIRE 432 160 400 160
WIRE -80 176 -144 176
WIRE 224 176 224 144
WIRE 224 176 0 176
WIRE 144 192 0 192
WIRE -80 208 -112 208
WIRE 240 208 0 208
WIRE 256 224 256 128
WIRE 320 224 256 224
WIRE 240 240 240 208
WIRE 320 240 240 240
WIRE -80 256 -144 256
WIRE 320 256 0 256
WIRE 448 256 448 128
WIRE 448 256 400 256
WIRE 112 272 0 272
WIRE -80 288 -112 288
WIRE 224 288 0 288
WIRE 256 320 256 224
WIRE 320 320 256 320
WIRE -80 336 -144 336
WIRE 208 336 0 336
WIRE 240 336 240 240
WIRE 320 336 240 336
WIRE 80 352 0 352
WIRE 224 352 224 288
WIRE 320 352 224 352
WIRE 464 352 464 144
WIRE 464 352 400 352
WIRE -80 368 -112 368
WIRE 208 368 208 336
WIRE 320 368 208 368
WIRE 176 432 176 112
WIRE 512 432 176 432
WIRE 512 448 416 448
WIRE 512 464 432 464
WIRE 720 464 592 464
WIRE 256 480 256 320
WIRE 320 480 256 480
WIRE 512 480 448 480
WIRE 144 496 144 192
WIRE 320 496 144 496
WIRE 416 512 416 448
WIRE 416 512 400 512
WIRE 256 576 256 480
WIRE 320 576 256 576
WIRE 240 592 240 336
WIRE 320 592 240 592
WIRE 112 608 112 272
WIRE 320 608 112 608
WIRE 432 608 432 464
WIRE 432 608 400 608
WIRE 256 672 256 576
WIRE 320 672 256 672
WIRE 240 688 240 592
WIRE 320 688 240 688
WIRE 224 704 224 352
WIRE 320 704 224 704
WIRE 448 704 448 480
WIRE 448 704 400 704
WIRE 80 720 80 352
WIRE 320 720 80 720
FLAG 720 128 COMP[1]
IOPIN 720 128 Out
FLAG 720 464 COMP[0]
IOPIN 720 464 Out
FLAG -144 96 MEAS[3]
IOPIN -144 96 In
FLAG -144 176 MEAS[2]
IOPIN -144 176 In
FLAG -144 256 MEAS[1]
IOPIN -144 256 In
FLAG -144 336 MEAS[0]
IOPIN -144 336 In
FLAG -112 128 REF[3]
IOPIN -112 128 In
FLAG -112 208 REF[2]
IOPIN -112 208 In
FLAG -112 288 REF[1]
IOPIN -112 288 In
FLAG -112 368 REF[0]
IOPIN -112 368 In
SYMBOL selfmadecomponents\\or2 512 64 R0
SYMATTR InstName X1
SYMBOL selfmadecomponents\\or2 512 400 R0
SYMATTR InstName X2
SYMBOL selfmadecomponents\\and2 352 96 R0
SYMATTR InstName A1
SYMBOL selfmadecomponents\\and2 352 192 R0
SYMATTR InstName A2
SYMBOL selfmadecomponents\\and2 352 288 R0
SYMATTR InstName A3
SYMBOL selfmadecomponents\\and2 352 448 R0
SYMATTR InstName A4
SYMBOL selfmadecomponents\\and2 352 544 R0
SYMATTR InstName A5
SYMBOL selfmadecomponents\\and2 352 640 R0
SYMATTR InstName A6
SYMBOL selfmadecomponents\\onebitcomparator -80 112 R0
SYMATTR InstName X3
SYMBOL selfmadecomponents\\onebitcomparator -80 192 R0
SYMATTR InstName X4
SYMBOL selfmadecomponents\\onebitcomparator -80 272 R0
SYMATTR InstName X5
SYMBOL selfmadecomponents\\onebitcomparator -80 352 R0
SYMATTR InstName X6
