Version 4.1
SHEET 1 1052 696
WIRE 112 -80 -48 -80
WIRE 192 -80 112 -80
WIRE 560 -64 272 -64
WIRE 144 -48 -48 -48
WIRE 192 -48 144 -48
WIRE 144 -16 144 -48
WIRE 288 -16 144 -16
WIRE 384 0 368 0
WIRE 112 16 112 -80
WIRE 288 16 112 16
WIRE 384 64 384 0
WIRE 384 64 -16 64
WIRE 32 96 -48 96
WIRE 80 96 32 96
WIRE 176 112 160 112
WIRE 288 112 176 112
WIRE -16 128 -16 64
WIRE 80 128 -16 128
WIRE 560 128 368 128
WIRE 288 144 224 144
WIRE 64 160 -48 160
WIRE 144 160 64 160
WIRE 192 160 224 144
WIRE 192 160 144 160
WIRE 176 192 176 112
WIRE 208 192 176 192
WIRE 144 224 144 160
WIRE 208 224 144 224
WIRE 384 224 368 224
WIRE 288 240 272 240
WIRE 64 256 64 160
WIRE 112 256 64 256
WIRE 224 272 272 240
WIRE 224 272 192 272
WIRE 32 288 32 96
WIRE 112 288 32 288
WIRE 688 304 560 -64
WIRE 816 304 688 304
WIRE 688 320 560 128
WIRE 816 320 688 320
WIRE 912 320 896 320
WIRE 384 336 384 224
WIRE 384 336 -16 336
WIRE 816 336 704 336
WIRE 816 352 768 352
WIRE 32 368 -48 368
WIRE 80 368 32 368
WIRE 176 384 160 384
WIRE 288 384 176 384
WIRE -16 400 -16 336
WIRE 80 400 -16 400
WIRE 464 400 704 336
WIRE 464 400 368 400
WIRE 288 416 224 416
WIRE 64 432 -48 432
WIRE 144 432 64 432
WIRE 192 432 224 416
WIRE 192 432 144 432
WIRE 656 448 464 448
WIRE 176 464 176 384
WIRE 208 464 176 464
WIRE 768 464 768 352
WIRE 768 464 736 464
WIRE 656 480 624 480
WIRE 144 496 144 432
WIRE 208 496 144 496
WIRE 464 496 464 448
WIRE 464 496 368 496
WIRE 288 512 272 512
WIRE 64 528 64 432
WIRE 112 528 64 528
WIRE 224 544 272 512
WIRE 224 544 192 544
WIRE 32 560 32 368
WIRE 112 560 32 560
WIRE 464 592 -48 592
WIRE 624 608 624 480
WIRE 624 608 544 608
WIRE 464 624 -48 624
FLAG -48 96 CODE[1]
IOPIN -48 96 In
FLAG -48 160 OUTS[1]
IOPIN -48 160 In
FLAG -48 -80 CODE[0]
IOPIN -48 -80 In
FLAG -48 -48 OUTS[0]
IOPIN -48 -48 In
FLAG -48 368 CODE[2]
IOPIN -48 368 In
FLAG -48 432 OUTS[2]
IOPIN -48 432 In
FLAG -48 592 CODE[3]
IOPIN -48 592 In
FLAG -48 624 OUTS[3]
IOPIN -48 624 In
FLAG 912 320 CORR2
IOPIN 912 320 Out
SYMBOL selfmadecomponents\\xor2 128 48 R0
WINDOW 0 16 24 Invisible 2
SYMATTR InstName A1
SYMBOL selfmadecomponents\\and2 240 144 R0
WINDOW 0 16 24 Invisible 2
SYMATTR InstName A3
SYMBOL selfmadecomponents\\and2 144 208 R0
WINDOW 0 16 24 Invisible 2
SYMATTR InstName A4
SYMBOL selfmadecomponents\\xor2 336 64 R0
WINDOW 0 16 24 Invisible 2
SYMATTR InstName CARRY
SYMBOL selfmadecomponents\\and2 320 -64 R0
WINDOW 0 16 24 Invisible 2
SYMATTR InstName CARRY
SYMBOL selfmadecomponents\\xor2 240 -128 R0
WINDOW 0 16 24 Invisible 2
SYMATTR InstName SUM
SYMBOL selfmadecomponents\\xor2 128 320 R0
WINDOW 0 16 24 Invisible 2
SYMATTR InstName A2
SYMBOL selfmadecomponents\\xor2 336 336 R0
WINDOW 0 16 24 Invisible 2
SYMATTR InstName SUM1
SYMBOL selfmadecomponents\\and2 240 416 R0
WINDOW 0 16 24 Invisible 2
SYMATTR InstName A5
SYMBOL selfmadecomponents\\and2 144 480 R0
WINDOW 0 16 24 Invisible 2
SYMATTR InstName A6
SYMBOL selfmadecomponents\\nor2 816 256 R0
SYMATTR InstName X1
SYMBOL selfmadecomponents\\xor2 704 400 R0
SYMATTR InstName A8
SYMBOL selfmadecomponents\\xor2 512 544 R0
WINDOW 0 16 24 Invisible 2
SYMATTR InstName A7
SYMBOL selfmadecomponents\\or2 288 160 R0
SYMATTR InstName X2
SYMBOL selfmadecomponents\\or2 288 432 R0
SYMATTR InstName X3
