Version 4.1
SHEET 1 880 680
SYMBOL selfmadecomponents\\Chal1Circuit 144 176 R0
SYMATTR InstName X1
