Version 4.1
SHEET 1 1000 1016
WIRE -256 208 -256 192
WIRE 320 208 -256 208
WIRE 432 224 400 224
WIRE -160 240 -160 192
WIRE 320 240 -160 240
WIRE -256 304 -256 208
WIRE -256 304 -320 304
WIRE -128 304 -256 304
WIRE -16 304 -16 192
WIRE -16 304 -48 304
WIRE 320 304 -16 304
WIRE -192 336 -192 192
WIRE 320 336 -192 336
WIRE 496 336 432 224
WIRE 528 336 496 336
WIRE 464 352 400 320
WIRE 528 352 464 352
WIRE 864 368 608 368
WIRE -224 384 -224 192
WIRE -224 384 -320 384
WIRE -128 384 -224 384
WIRE 16 384 16 192
WIRE 16 384 -48 384
WIRE 528 384 464 384
WIRE -16 400 -16 304
WIRE 320 400 -16 400
WIRE 528 400 496 400
WIRE 400 416 464 384
WIRE -224 432 -224 384
WIRE 320 432 -224 432
WIRE -192 464 -192 336
WIRE -192 464 -320 464
WIRE -128 464 -192 464
WIRE 48 464 48 192
WIRE 48 464 -48 464
WIRE -256 496 -256 304
WIRE 320 496 -256 496
WIRE 16 512 16 384
WIRE 320 512 16 512
WIRE 400 512 496 400
WIRE 624 512 512 512
WIRE 48 528 48 464
WIRE 320 528 48 528
WIRE 720 528 704 528
WIRE -160 544 -160 240
WIRE -160 544 -320 544
WIRE -128 544 -160 544
WIRE 80 544 80 192
WIRE 80 544 -48 544
WIRE 320 544 80 544
WIRE 624 544 576 544
WIRE -192 576 -192 464
WIRE 512 576 512 512
WIRE 512 576 -192 576
WIRE 752 576 720 528
WIRE 768 576 752 576
WIRE -160 592 -160 544
WIRE 576 592 576 544
WIRE 576 592 -160 592
WIRE 80 608 80 544
WIRE 544 608 80 608
WIRE 768 608 752 608
WIRE 544 640 544 608
WIRE 624 640 544 640
WIRE -224 656 -224 432
WIRE 320 656 -224 656
WIRE 720 656 752 608
WIRE 720 656 704 656
WIRE 432 672 400 672
WIRE 512 672 512 576
WIRE 624 672 512 672
WIRE 848 672 832 672
WIRE -160 688 -160 592
WIRE 320 688 -160 688
WIRE 576 720 576 592
WIRE 784 720 832 672
WIRE 784 720 576 720
WIRE 16 752 16 512
WIRE 320 752 16 752
WIRE 480 752 432 672
WIRE 512 752 480 752
WIRE 512 768 400 768
WIRE 864 768 592 768
WIRE -192 784 -192 576
WIRE 320 784 -192 784
WIRE 512 784 480 784
WIRE -224 848 -224 656
WIRE 320 848 -224 848
WIRE 48 864 48 528
WIRE 320 864 48 864
WIRE 432 864 480 784
WIRE 432 864 400 864
WIRE 80 880 80 608
WIRE 320 880 80 880
FLAG -320 304 A
IOPIN -320 304 In
FLAG -320 384 B
IOPIN -320 384 In
FLAG -320 464 C
IOPIN -320 464 In
FLAG -320 544 D
IOPIN -320 544 In
FLAG 864 368 out1
IOPIN 864 368 Out
FLAG 848 592 out3
IOPIN 848 592 Out
FLAG 864 768 out2
IOPIN 864 768 Out
FLAG -256 192 A
FLAG -224 192 B
FLAG -192 192 C
FLAG -160 192 D
FLAG -16 192 ~A
FLAG 16 192 ~B
FLAG 48 192 ~C
FLAG 80 192 ~D
FLAG 848 672 out4
IOPIN 848 672 Out
SYMBOL ELEC2141\\NOT_2141 -96 304 R0
SYMATTR InstName X1
SYMBOL ELEC2141\\NOT_2141 -96 384 R0
SYMATTR InstName X2
SYMBOL ELEC2141\\NOT_2141 -96 464 R0
SYMATTR InstName X3
SYMBOL ELEC2141\\NOT_2141 -96 544 R0
SYMATTR InstName X4
SYMBOL selfmadecomponents\\and2 352 160 R0
WINDOW 0 16 24 Invisible 2
SYMATTR InstName A1
SYMBOL selfmadecomponents\\and2 352 256 R0
WINDOW 0 16 24 Invisible 2
SYMATTR InstName A2
SYMBOL selfmadecomponents\\and2 352 352 R0
WINDOW 0 16 24 Invisible 2
SYMATTR InstName A3
SYMBOL selfmadecomponents\\and2 352 448 R0
WINDOW 0 16 24 Invisible 2
SYMATTR InstName A4
SYMBOL selfmadecomponents\\and2 352 608 R0
WINDOW 0 16 24 Invisible 2
SYMATTR InstName A5
SYMBOL selfmadecomponents\\and2 352 704 R0
WINDOW 0 16 24 Invisible 2
SYMATTR InstName A6
SYMBOL selfmadecomponents\\and2 352 800 R0
WINDOW 0 16 24 Invisible 2
SYMATTR InstName A7
SYMBOL selfmadecomponents\\or2 528 304 R0
SYMATTR InstName X5
SYMBOL selfmadecomponents\\or2 512 704 R0
SYMATTR InstName X6
SYMBOL selfmadecomponents\\and2 656 464 R0
WINDOW 0 16 24 Invisible 2
SYMATTR InstName A8
SYMBOL selfmadecomponents\\and2 656 592 R0
WINDOW 0 16 24 Invisible 2
SYMATTR InstName A9
SYMBOL selfmadecomponents\\or2 768 528 R0
SYMATTR InstName X7
