Version 4
SHEET 1 880 680
WIRE 112 -32 64 -32
WIRE 64 0 64 -32
WIRE 0 32 -16 32
WIRE 64 128 64 64
WIRE 96 128 64 128
WIRE 208 128 176 128
WIRE 224 128 208 128
WIRE 304 128 288 128
WIRE 64 160 64 128
WIRE 208 160 208 128
WIRE 64 272 64 240
WIRE 208 272 208 224
WIRE 208 272 64 272
WIRE 64 288 64 272
FLAG 64 288 0
FLAG 192 -32 0
FLAG -96 32 0
FLAG 64 128 x
FLAG 208 128 y
FLAG 368 128 z
SYMBOL res 192 112 R90
WINDOW 0 0 56 VBottom 2
WINDOW 3 32 56 VTop 2
SYMATTR InstName R1
SYMATTR Value 680
SYMBOL res 48 144 R0
SYMATTR InstName R2
SYMATTR Value 1k
SYMBOL cap 192 160 R0
SYMATTR InstName C1
SYMATTR Value 1µ
SYMBOL ELEC2141\\schmitt_trigger_2141 256 128 R0
SYMATTR InstName X1
SYMBOL ELEC2141\\schmitt_trigger_2141 320 128 R0
SYMATTR InstName X2
SYMBOL ELEC2141\\switch_bouncy_2141 48 32 R0
SYMATTR InstName X3
SYMBOL voltage 96 -32 R270
WINDOW 0 32 56 VTop 2
WINDOW 3 -32 56 VBottom 2
WINDOW 123 0 0 Left 0
WINDOW 39 0 0 Left 0
SYMATTR InstName V2
SYMATTR Value 5
SYMBOL voltage 0 32 R90
WINDOW 0 -32 56 VBottom 2
WINDOW 3 47 200 VTop 2
WINDOW 123 0 0 Left 0
WINDOW 39 0 0 Left 0
SYMATTR InstName V1
SYMATTR Value PULSE(0 5 50m 1n 1n 50m 100m)
TEXT -392 312 Left 2 !.tran 1s
