Version 4
SHEET 1 880 680
WIRE 512 -80 -48 -80
WIRE 352 -16 320 -16
WIRE 512 -16 512 -80
WIRE 512 -16 448 -16
WIRE 352 32 336 32
WIRE 320 80 320 -16
WIRE 512 80 320 80
WIRE -48 96 -48 -80
WIRE -32 96 -48 96
WIRE 112 112 48 112
WIRE 240 112 208 112
WIRE -32 128 -48 128
WIRE 208 128 208 112
WIRE 208 128 192 128
WIRE 352 128 320 128
WIRE 512 128 512 80
WIRE 512 128 448 128
WIRE 112 144 96 144
WIRE 208 144 208 128
WIRE 240 144 208 144
WIRE 336 176 336 32
WIRE 352 176 336 176
WIRE 96 192 96 144
WIRE 96 192 -112 192
WIRE 192 224 192 128
WIRE 560 224 192 224
WIRE -48 240 -48 128
WIRE 512 240 512 128
WIRE 512 240 -48 240
WIRE 336 272 336 176
WIRE 336 272 -112 272
SYMBOL ELEC2141\\XOR_2141 -16 112 R0
SYMATTR InstName X1
SYMBOL ELEC2141\\XOR_2141 128 128 R0
SYMATTR InstName X2
SYMBOL ELEC2141\\NAND_2141 288 128 R0
SYMATTR InstName X3
SYMBOL ELEC2141\\Dflop_2141 384 144 R0
SYMATTR InstName X4
SYMBOL ELEC2141\\Dflop_2141 384 0 R0
SYMATTR InstName X5
